src/test/resources/matpower/case6515rte.txt
 13/05/91 CYME INTERNATIONAL    100.0 1991 S IEEE 300-BUS TEST SYSTEM
BUS DATA FOLLOWS                   6515 ITEMS
   1 bus-1   45    1  1  0 0.9927 -12.85     0.00      0.00    0.00    0.00   45.00 1.0000    0.00    0.00  0.0000  0.0000    0
   2 bus-2   63    1  1  0 1.0255  -9.79     0.00      0.00    0.00    0.00   63.00 1.0000    0.00    0.00  0.0000  0.0000    0
   3 bus-3   63    1  1  0 1.0086 -17.19    14.80      3.80    0.00    0.00   63.00 1.0000    0.00    0.00  0.0000  0.0000    0
   4 bus-4   90    1  1  0 1.0242 -30.34    49.60      2.80    0.00    0.00   90.00 1.0250    0.00    0.00  0.0000  0.0000    0
   5 bus-5   63    1  1  0 1.0090 -61.84    12.90      0.90    0.00    0.00   63.00 1.0160    0.00    0.00  0.0000  0.0000    0
   6 bus-6   63    1  1  0 1.0304 -21.87    13.00      5.30    0.00    0.00   63.00 1.0000    0.00    0.00  0.0000  0.0000    0
   7 bus-7   63    1  1  0 1.0482 -23.33     2.30      0.20    0.00    0.00   63.00 1.0000    0.00    0.00  0.0000  0.0000    0
   8 bus-8   225   1  1  0 1.0418 -22.66    15.80     -0.30    0.00    0.00  225.00 1.0000    0.00    0.00  0.0000  0.0000    0
   9 bus-9   63    1  1  0 1.0416 -20.27    14.90      0.00    0.00    0.00   63.00 1.0000    0.00    0.00  0.0000  0.0000    0
  10 bus-10  90    1  1  0 1.0133 -29.15     0.00      0.00    0.00    0.00   90.00 1.0000    0.00    0.00  0.0000  0.0000    0
  11 bus-11  90    1  1  0 1.0133 -29.15    33.20      4.90    0.05    0.00   90.00 1.0140    0.00    0.00  0.0000  0.0000    0
  12 bus-12  63    1  1  0 1.0149  -3.70     0.00      0.00    0.00    0.00   63.00 1.0000    0.00    0.00  0.0000  0.0000    0
  13 bus-13  380   1  1  0 1.0611  -5.53     0.00      0.00    0.00    0.00  380.00 1.0000    0.00    0.00  0.0000  0.0000    0
  14 bus-14  90    1  1  0 1.0556 -38.69    63.20     13.30    0.00    0.00   90.00 1.0000    0.00    0.00  0.0000  0.3040    0
  15 bus-15  63    1  1  0 1.0207 -25.23     0.00      0.00    0.00    0.00   63.00 1.0000    0.00    0.00  0.0000  0.0000    0
  16 bus-16  63    1  1  0 1.0309 -28.90    13.90      1.90    0.00    0.00   63.00 1.0000    0.00    0.00  0.0000  0.0000    0
  17 bus-17  90    1  1  0 1.0419 -35.50    10.90      0.10    0.00    0.00   90.00 1.0450    0.00    0.00  0.0000  0.0000    0
  18 bus-18  45    1  1  0 0.9388  -6.54     0.00      0.00    0.00    0.00   45.00 1.0000    0.00    0.00  0.0000  0.0000    0
  19 bus-19  63    1  1  0 1.0192 -24.08     1.00      0.00    0.00    0.00   63.00 1.0200    0.00    0.00  0.0000  0.0000    0
  20 bus-20  45    1  1  0 0.9396  -6.58     5.60    -18.00    0.00    0.00   45.00 1.0000    0.00    0.00  0.0000  0.0000    0
  21 bus-21  90    1  1  0 1.0235 -23.31     7.60     -1.60    0.00    0.00   90.00 1.0000    0.00    0.00  0.0000  0.0000    0
  22 bus-22  63    1  1  0 1.0066 -18.25    18.50      1.00    0.00    0.00   63.00 1.0070    0.00    0.00  0.0000  0.0000    0
  23 bus-23  63    1  1  0 1.0197 -11.50    22.40      2.20    0.00    0.00   63.00 1.0000    0.00    0.00  0.0000  0.0000    0
  24 bus-24  90    1  1  0 1.0262 -28.90    17.00     -1.50    0.00    0.00   90.00 1.0270    0.00    0.00  0.0000  0.0000    0
  25 bus-25  90    1  1  0 1.0621 -24.93    54.70     -1.10    0.22    0.00   90.00 1.0640    0.00    0.00  0.0000  0.0000    0
  26 bus-26  90    1  1  0 1.0192 -30.56    15.10     10.60    0.00    0.00   90.00 1.0000    0.00    0.00  0.0000  0.0000    0
  27 bus-27  225   1  1  0 1.0563 -25.69     0.00      0.00    0.00    0.00  225.00 1.0000    0.00    0.00  0.0000  0.0000    0
  28 bus-28  63    1  1  0 1.0192 -24.38     0.90     -0.20    0.00    0.00   63.00 1.0000    0.00    0.00  0.0000  0.0000    0
  29 bus-29  63    1  1  0 0.9925 -26.27    76.50      9.40    0.00    0.00   63.00 1.0000    0.00    0.00  0.0000  0.0000    0
  30 bus-30  90    1  1  0 1.0161 -29.46    39.90      3.50    0.00    0.00   90.00 1.0000    0.00    0.00  0.0000  0.0000    0
  31 bus-31  63    1  1  0 1.0433 -10.37     0.00      0.00    0.00    0.00   63.00 1.0000    0.00    0.00  0.0000  0.0000    0
  32 bus-32  150   1  1  0 1.0483  -5.18     0.00      0.00    0.00    0.00  150.00 1.0000    0.00    0.00  0.0000  0.0000    0
  33 bus-33  225   1  1  0 1.0586  -7.54     0.00      0.00    0.00    0.00  225.00 1.0000    0.00    0.00  0.0000  0.0000    0
  34 bus-34  225   1  1  0 1.0557  -6.88     0.00      0.00    0.00    0.00  225.00 1.0000    0.00    0.00  0.0000  0.0000    0
  35 bus-35  380   1  1  0 1.0721  -6.27     0.00      0.00    0.00    0.00  380.00 1.0000    0.00    0.00  0.0000  0.0000    0
  36 bus-36  380   1  1  0 1.0756  -5.29     0.00      0.00    0.00    0.00  380.00 1.0000    0.00    0.00  0.0000  0.0000    0
  37 bus-37  63    1  1  0 1.0135 -27.15    -2.70      3.00    0.00    0.00   63.00 1.0000    0.00    0.00  0.0000  0.0000    0
  38 bus-38  63    1  1  0 1.0283 -25.87     5.00     -1.00    0.00    0.00   63.00 1.0000    0.00    0.00  0.0000  0.0000    0
  39 bus-39  90    1  1  0 1.0157 -46.22    43.60     -2.90    0.00    0.00   90.00 1.0000    0.00    0.00  0.0000  0.0000    0
  40 bus-40  90    1  1  0 1.0484 -36.83    38.10      4.10    0.00    0.00   90.00 1.0540    0.00    0.00  0.0000  0.0000    0
  41 bus-41  225   1  1  0 1.0597 -31.17     0.00      0.00    0.00    0.00  225.00 1.0000    0.00    0.00  0.0000  0.0000    0
  42 bus-42  63    1  1  0 1.1232   0.17     0.00      0.00    0.00    0.00   63.00 1.0000    0.00    0.00  0.0000  0.0000    0
  43 bus-43  90    1  1  0 1.0342 -33.03     3.20      2.70    0.00    0.00   90.00 1.0000    0.00    0.00  0.0000  0.0000    0
  44 bus-44  63    1  1  0 1.0240 -57.52    13.30      0.10    0.00    0.00   63.00 1.0000    0.00    0.00  0.0000  0.0000    0
  45 bus-45  90    1  1  0 1.0141 -40.03     3.80      1.60    0.00    0.00   90.00 1.0000    0.00    0.00  0.0000  0.0000    0
  46 bus-46  63    1  1  0 1.0296 -17.10     0.00      0.00    0.00    0.00   63.00 1.0000    0.00    0.00  0.0000  0.0000    0
  47 bus-47  63    1  1  2 1.0220 -13.01     0.00      0.00   17.12  -20.00   63.00 1.0220   19.00  -20.00  0.0000  0.0000    0
  48 bus-48  90    1  1  0 1.0154 -30.48    40.40      5.60    0.00    0.00   90.00 1.0170    0.00    0.00  0.0000  0.0000    0
  49 bus-49  63    1  1  0 1.0241 -18.46     9.80     -1.90    0.00    0.00   63.00 1.0000    0.00    0.00  0.0000  0.0000    0
  50 bus-50  63    1  1  0 1.0668 -15.89     0.00      0.00    0.00    0.00   63.00 1.0000    0.00    0.00  0.0000  0.0000    0
  51 bus-51  225   1  1  0 1.0544 -10.92     0.00      0.00    0.00    0.00  225.00 1.0000    0.00    0.00  0.0000  0.0000    0
  52 bus-52  90    1  1  0 1.0282 -42.06     6.50      2.90    0.00    0.00   90.00 1.0000    0.00    0.00  0.0000  0.0000    0
  53 bus-53  63    1  1  0 0.9909 -33.20     0.00     -1.30    0.00    0.00   63.00 1.0000    0.00    0.00  0.0000  0.0000    0
  54 bus-54  90    1  1  0 1.0320 -22.30     0.30     -0.30    0.00    0.00   90.00 1.0000    0.00    0.00  0.0000  0.0000    0
  55 bus-55  225   1  1  0 1.0670 -34.61    50.90     12.30    0.00    0.00  225.00 1.0000    0.00    0.00  0.0000  0.0000    0
  56 bus-56  225   1  1  0 1.0552 -29.86    75.50     20.50    0.00    0.00  225.00 1.0000    0.00    0.00  0.0000  0.0000    0
  57 bus-57  63    1  1  2 1.0580 -20.17     0.00      0.00    4.74    1.00   63.00 1.0580    1.00    0.90  0.0000  0.0000    0
  58 bus-58  225   1  1  0 1.0669 -34.63   154.00     36.40    0.00    0.00  225.00 1.0000    0.00    0.00  0.0000  0.0000    0
  59 bus-59  63    1  1  0 1.0283 -15.39     5.00      1.00    0.00    0.00   63.00 1.0000    0.00    0.00  0.0000  0.0000    0
  60 bus-60  63    1  1  0 1.0338  -9.97     0.00      0.00    0.00    0.00   63.00 1.0000    0.00    0.00  0.0000  0.0000    0
  61 bus-61  63    1  1  0 1.0349 -11.56    46.30     11.90    0.00    0.00   63.00 1.0000    0.00    0.00  0.0000  0.0000    0
  62 bus-62  63    1  1  0 1.0206  -9.94     0.00      0.00    0.00    0.00   63.00 1.0000    0.00    0.00  0.0000  0.0000    0
  63 bus-63  63    1  1  0 1.0113  -4.27    16.80      2.90    0.00    0.00   63.00 1.0000    0.00    0.00  0.0000  0.0000    0
  64 bus-64  225   1  1  0 1.0547 -22.37    67.30      7.10    0.00    0.00  225.00 1.0560    0.00    0.00  0.0000  0.0000    0
  65 bus-65  63    1  1  0 1.0469 -12.19    12.00      2.80    0.00    0.00   63.00 1.0000    0.00    0.00  0.0000  0.0000    0
  66 bus-66  63    1  1  0 1.0271 -27.77    13.00     -6.40    0.00    0.00   63.00 1.0000    0.00    0.00  0.0000  0.0000    0
  67 bus-67  63    1  1  0 1.0395 -23.56     1.00      0.00    0.00    0.00   63.00 1.0000    0.00    0.00  0.0000  0.0000    0
  68 bus-68  63    1  1  0 1.0138 -17.07    53.10      1.10    0.00    0.00   63.00 1.0000    0.00    0.00  0.0000  0.0000    0
  69 bus-69  63    1  1  0 1.0418 -62.46    20.80      1.30    0.00    0.00   63.00 1.0450    0.00    0.00  0.0000  0.0000    0
  70 bus-70  63    1  1  0 1.0252  -2.58    10.60      4.20    0.00    0.00   63.00 1.0260    0.00    0.00  0.0000  0.0000    0
  71 bus-71  63    1  1  0 1.0098 -33.36    69.40     17.50    0.00    0.00   63.00 1.0000    0.00    0.00  0.0000  0.0000    0
  72 bus-72  225   1  1  0 1.0773 -26.62     0.00      0.00    0.00    0.00  225.00 1.0000    0.00    0.00  0.0000  0.0000    0
  73 bus-73  225   1  1  0 1.0773 -26.62     0.00      0.00    0.00    0.00  225.00 1.0000    0.00    0.00  0.0000  0.0000    0
  74 bus-74  225   1  1  0 1.0552 -22.21    58.80     -5.00    0.00    0.00  225.00 1.0000    0.00    0.00  0.0000  0.0000    0
  75 bus-75  90    1  1  0 1.0383 -25.90    25.20      1.90    0.00    0.00   90.00 1.0000    0.00    0.00  0.0000  0.0000    0
  76 bus-76  225   1  1  0 1.0767  -0.74     5.90     -2.10    0.00    0.00  225.00 1.0000    0.00    0.00  0.0000  0.0000    0
  77 bus-77  63    1  1  0 1.0154 -18.68    43.70      0.40    0.00    0.00   63.00 1.0000    0.00    0.00  0.0000  0.0000    0
  78 bus-78  63    1  1  0 1.0381 -26.04     0.00      0.00    0.00    0.00   63.00 1.0000    0.00    0.00  0.0000  0.0000    0
  79 bus-79  63    1  1  0 1.0048 -32.17     0.00      0.00    0.00    0.00   63.00 1.0000    0.00    0.00  0.0000  0.0000    0
  80 bus-80  225   1  1  0 1.0351 -31.71    32.40     10.50    0.00    0.00  225.00 1.0000    0.00    0.00  0.0000  0.0000    0
  81 bus-81  225   1  1  0 1.0352 -31.71    32.40      9.10    0.00    0.00  225.00 1.0000    0.00    0.00  0.0000  0.0000    0
  82 bus-82  63    1  1  0 1.0251 -19.75    11.30      0.30    0.00    0.00   63.00 1.0000    0.00    0.00  0.0000  0.0000    0
  83 bus-83  225   1  1  0 1.0453 -32.29    79.00     24.80    0.00    0.00  225.00 1.0000    0.00    0.00  0.0000  0.0000    0
  84 bus-84  63    1  1  0 1.0162 -14.31    -0.10      0.40    0.00    0.00   63.00 1.0000    0.00    0.00  0.0000  0.0000    0
  85 bus-85  63    1  1  0 1.0408 -18.10     0.70     -1.50    0.00    0.00   63.00 1.0420    0.00    0.00  0.0000  0.0000    0
  86 bus-86  90    1  1  0 1.0161 -49.93    48.80      5.20    0.00    0.00   90.00 1.0190    0.00    0.00  0.0000  0.0000    0
  87 bus-87  63    1  1  0 1.0233  -4.29     0.00      0.00    0.00    0.00   63.00 1.0000    0.00    0.00  0.0000  0.0000    0
  88 bus-88  63    1  1  0 1.0361 -22.05    14.80     -1.20    0.00    0.00   63.00 1.0000    0.00    0.00  0.0000  0.0000    0
  89 bus-89  90    1  1  0 1.0284 -35.76    26.20      0.30    0.00    0.00   90.00 1.0000    0.00    0.00  0.0000  0.0000    0
  90 bus-90  45    1  1  0 0.9430  -7.25     0.20     -2.30    0.00    0.00   45.00 1.0000    0.00    0.00  0.0000  0.0000    0
  91 bus-91  45    1  1  0 0.9388  -6.54     0.00      0.00    0.00    0.00   45.00 1.0000    0.00    0.00  0.0000  0.0000    0
  92 bus-92  63    1  1  0 1.0091 -21.26    31.80      1.10    0.00    0.00   63.00 1.0000    0.00    0.00  0.0000  0.0000    0
  93 bus-93  45    1  1  0 0.9543  -8.94     2.00     -2.80    0.00    0.00   45.00 1.0000    0.00    0.00  0.0000  0.0000    0
  94 bus-94  90    1  1  0 1.0348 -29.33    18.20     -4.00    0.00    0.00   90.00 1.0000    0.00    0.00  0.0000  0.0000    0
  95 bus-95  90    1  1  0 1.0233 -41.90    57.20      9.40    0.00    0.00   90.00 1.0000    0.00    0.00  0.0000  0.0000    0
  96 bus-96  63    1  1  0 1.0501 -10.47     0.90     -0.20    0.00    0.00   63.00 1.0000    0.00    0.00  0.0000  0.0000    0
  97 bus-97  63    1  1  0 1.0638 -23.15    57.70      3.80    0.00    0.00   63.00 1.0000    0.00    0.00  0.0000  0.0000    0
  98 bus-98  63    1  1  0 1.0184 -23.60     9.50      1.00    0.00    0.00   63.00 1.0000    0.00    0.00  0.0000  0.0000    0
  99 bus-99  63    1  1  0 1.0420 -11.24    35.80      5.90    0.00    0.00   63.00 1.0000    0.00    0.00  0.0000  0.0000    0
 100 bus-100 63    1  1  0 1.0199 -16.72    63.00      7.80    0.00    0.00   63.00 1.0000    0.00    0.00  0.0000  0.0000    0
 101 bus-101 63    1  1  0 1.0072 -15.40    17.30     -0.80    0.00    0.00   63.00 1.0000    0.00    0.00  0.0000  0.0000    0
 102 bus-102 63    1  1  2 1.0330 -17.54     0.00      0.00   17.16   -7.63   63.00 1.0330   21.00   -9.00  0.0000  0.0000    0
 103 bus-103 63    1  1  0 1.0340 -10.24    12.60     -1.20    0.00    0.00   63.00 1.0000    0.00    0.00  0.0000  0.0000    0
 104 bus-104 225   1  1  0 1.0690  -7.25     0.00      0.00    0.00    0.00  225.00 1.0000    0.00    0.00  0.0000  0.0000    0
 105 bus-105 225   1  1  0 1.0359 -20.67    36.90      2.20    0.00    0.00  225.00 1.0000    0.00    0.00  0.0000  0.0000    0
 106 bus-106 90    1  1  0 1.0452 -25.68    58.20     10.70    0.00    0.00   90.00 1.0000    0.00    0.00  0.0000  0.0000    0
 107 bus-107 225   1  1  0 1.0405 -31.51   107.00     14.30    0.00    0.00  225.00 1.0000    0.00    0.00  0.0000  0.0000    0
 108 bus-108 90    1  1  0 1.0464 -31.13    12.20     -2.40    0.00    0.00   90.00 1.0000    0.00    0.00  0.0000  0.0000    0
 109 bus-109 63    1  1  0 1.0391 -13.97    67.80      8.70    0.00    0.00   63.00 1.0000    0.00    0.00  0.0000  0.0000    0
 110 bus-110 225   1  1  0 1.0264 -10.00     0.00      0.00    0.00    0.00  225.00 1.0000    0.00    0.00  0.0000  0.0000    0
 111 bus-111 63    1  1  0 0.9999 -23.86    38.70     -7.50    0.00    0.00   63.00 1.0000    0.00    0.00  0.0000  0.0000    0
 112 bus-112 63    1  1  0 1.0085 -32.72     0.00      0.00    0.00    0.00   63.00 1.0000    0.00    0.00  0.0000  0.0000    0
 113 bus-113 225   1  1  0 1.0419 -29.08     0.00      0.00    0.00    0.00  225.00 1.0000    0.00    0.00  0.0000  0.0000    0
 114 bus-114 63    1  1  0 1.0516 -14.02    13.40      1.10    0.00    0.00   63.00 1.0000    0.00    0.00  0.0000  0.0000    0
 115 bus-115 380   1  1  0 1.0611  -5.53     0.00      0.00    0.00    0.00  380.00 1.0000    0.00    0.00  0.0000  0.0000    0
 116 bus-116 380   1  1  0 1.0611  -5.53     0.00      0.00    0.00    0.00  380.00 1.0000    0.00    0.00  0.0000  0.0000    0
 117 bus-117 63    1  1  0 1.0149 -22.06    14.90      0.20    0.00    0.00   63.00 1.0000    0.00    0.00  0.0000  0.0000    0
 118 bus-118 90    1  1  0 1.0407 -25.58     2.00      0.70    0.00    0.00   90.00 1.0000    0.00    0.00  0.0000  0.0000    0
 119 bus-119 63    1  1  0 1.0075 -12.29    40.60      6.90    0.00    0.00   63.00 1.0000    0.00    0.00  0.0000  0.0000    0
 120 bus-120 63    1  1  0 1.0270 -10.67    22.00     -2.30    0.00    0.00   63.00 1.0000    0.00    0.00  0.0000  0.0000    0
 121 bus-121 63    1  1  0 1.0191 -28.44    20.80      1.40    0.00    0.00   63.00 1.0000    0.00    0.00  0.0000  0.0000    0
 122 bus-122 63    1  1  2 1.0260 -11.49     0.00      0.00    6.17    2.04   63.00 1.0260    5.00   -2.00  0.0000  0.0000    0
 123 bus-123 63    1  1  0 1.0235 -11.62    12.00      4.60    0.00    0.00   63.00 1.0000    0.00    0.00  0.0000  0.0000    0
 124 bus-124 90    1  1  0 1.0306 -32.05     8.00     -0.40    0.00    0.00   90.00 1.0320    0.00    0.00  0.0000  0.0000    0
 125 bus-125 63    1  1  0 1.0245 -17.61    11.10      0.40    6.32    0.00   63.00 1.0260    0.00    0.00  0.0000  0.0000    0
 126 bus-126 63    1  1  0 1.0420 -18.17     0.20      0.80    0.00    0.00   63.00 1.0000    0.00    0.00  0.0000  0.0000    0
 127 bus-127 63    1  1  0 1.0089 -34.78    14.70      2.70    0.00    0.00   63.00 1.0000    0.00    0.00  0.0000  0.0000    0
 128 bus-128 63    1  1  0 1.0242 -13.45    13.80      7.20    0.00    0.00   63.00 1.0000    0.00    0.00  0.0000  0.0000    0
 129 bus-129 63    1  1  0 1.0223 -11.68    19.10     10.80    0.00    0.00   63.00 1.0000    0.00    0.00  0.0000  0.0000    0
 130 bus-130 225   1  1  0 1.0494 -10.76     0.00      0.00    0.00    0.00  225.00 1.0000    0.00    0.00  0.0000  0.0000    0
 131 bus-131 225   1  1  0 1.0480 -19.30   119.30     12.00    0.00    0.00  225.00 1.0000    0.00    0.00  0.0000  0.0000    0
 132 bus-132 90    1  1  2 1.0610 -17.41     9.40      0.00   12.30    3.20   90.00 1.0610   10.00  -10.00  0.0000  0.0000    0
 133 bus-133 63    1  1  0 0.9770 -35.70     2.70      0.40    0.00    0.00   63.00 1.0000    0.00    0.00  0.0000  0.0000    0
 134 bus-134 225   1  1  0 1.0192 -32.37   101.10     27.40    0.00    0.00  225.00 1.0000    0.00    0.00  0.0000  0.0000    0
 135 bus-135 225   1  1  0 1.0679 -34.44     0.00      0.00    0.00    0.00  225.00 1.0000    0.00    0.00  0.0000  0.0000    0
 136 bus-136 90    1  1  0 1.0286 -45.16    23.90      1.40    0.00    0.00   90.00 1.0000    0.00    0.00  0.0000  0.0000    0
 137 bus-137 63    1  1  2 1.0210 -13.77     8.70     -3.00    7.21   -1.00   63.00 1.0210    1.60   -1.60  0.0000  0.0000    0
 138 bus-138 150   1  1  0 1.0523 -11.85     0.00      0.00    0.00    0.00  150.00 1.0000    0.00    0.00  0.0000  0.0000    0
 139 bus-139 63    1  1  0 1.0465 -14.92     8.00      7.10    0.00    0.00   63.00 1.0000    0.00    0.00  0.0000  0.0000    0
 140 bus-140 225   1  1  0 1.0765 -11.70     0.00      0.00    0.00    0.00  225.00 1.0000    0.00    0.00  0.0000  0.8000    0
 141 bus-141 380   1  1  0 1.0876  -8.33     0.00      0.00    0.00    0.00  380.00 1.0000    0.00    0.00  0.0000  0.0000    0
 142 bus-142 63    1  1  0 1.0323 -14.90    22.40      7.40    0.00    0.00   63.00 1.0000    0.00    0.00  0.0000  0.0000    0
 143 bus-143 225   1  1  0 1.0631  -9.97     0.00      0.00    0.00    0.00  225.00 1.0000    0.00    0.00  0.0000  0.0000    0
 144 bus-144 90    1  1  0 1.0331 -26.87    16.00      5.00    0.00    0.00   90.00 1.0000    0.00    0.00  0.0000  0.0000    0
 145 bus-145 225   1  1  0 1.0564 -22.10    23.40      9.00    0.00    0.00  225.00 1.0000    0.00    0.00  0.0000  0.0000    0
 146 bus-146 380   1  1  0 1.0713 -18.88     0.00      0.00    0.00    0.00  380.00 1.0000    0.00    0.00  0.0000  0.0000    0
 147 bus-147 63    1  1  0 1.0439 -16.07    30.00      5.50    0.00    0.00   63.00 1.0000    0.00    0.00  0.0000  0.0000    0
 148 bus-148 63    1  1  0 1.0375 -13.21     6.60      1.20    0.00    0.00   63.00 1.0000    0.00    0.00  0.0000  0.0000    0
 149 bus-149 90    1  1  0 1.0341 -41.22    16.90      4.10    0.00    0.00   90.00 1.0000    0.00    0.00  0.0000  0.0000    0
 150 bus-150 63    1  1  0 1.0411 -10.86    48.50      3.20    0.00    0.00   63.00 1.0000    0.00    0.00  0.0000  0.0000    0
 151 bus-151 63    1  1  0 0.9810 -26.94     0.00      0.00    0.00    0.00   63.00 1.0000    0.00    0.00  0.0000  0.0000    0
 152 bus-152 63    1  1  0 0.9808 -25.68    45.30     12.00    0.00    0.00   63.00 1.0000    0.00    0.00  0.0000  0.0770    0
 153 bus-153 63    1  1  0 1.0418 -13.23    27.30     -5.50    0.00    0.00   63.00 1.0000    0.00    0.00  0.0000  0.0000    0
 154 bus-154 225   1  1  0 1.0667  -9.81     0.00      0.00    0.00    0.00  225.00 1.0000    0.00    0.00  0.0000  0.0000    0
 155 bus-155 63    1  1  2 1.0341 -20.22     0.00      0.00    0.00    0.47   63.00 1.0350    1.76   -1.76  0.0000  0.0000    0
 156 bus-156 63    1  1  0 0.9809 -26.94     0.00      0.00    0.00    0.00   63.00 1.0000    0.00    0.00  0.0000  0.0000    0
 157 bus-157 45    1  1  0 0.9355 -10.54     0.00     -2.20    0.00    0.00   45.00 1.0000    0.00    0.00  0.0000  0.0000    0
 158 bus-158 45    1  1  2 0.9590  -8.82     0.00      0.00   16.58    4.52   45.00 0.9590   20.00  -26.00  0.0000  0.0000    0
 159 bus-159 63    1  1  0 1.0373 -13.47     0.00      0.00    0.00    0.00   63.00 1.0000    0.00    0.00  0.0000  0.0000    0
 160 bus-160 225   1  1  0 1.0447 -19.11    41.70      5.90    0.00    0.00  225.00 1.0000    0.00    0.00  0.0000  0.0000    0
 161 bus-161 225   1  1  0 1.0445 -19.12    43.70     10.00    0.00    0.00  225.00 1.0000    0.00    0.00  0.0000  0.0000    0
 162 bus-162 90    1  1  0 1.0134 -30.32    -0.30     -1.60    0.00    0.00   90.00 1.0000    0.00    0.00  0.0000  0.0000    0
 163 bus-163 63    1  1  0 1.0280 -10.73     0.00      0.00    0.00    0.00   63.00 1.0000    0.00    0.00  0.0000  0.0000    0
 164 bus-164 63    1  1  0 1.0280 -10.73     0.00      0.00    0.00    0.00   63.00 1.0000    0.00    0.00  0.0000  0.0000    0
 165 bus-165 20    1  1  0 1.0598 -36.31    16.50     14.60    0.00    0.00   20.00 1.0000    0.00    0.00  0.0000  0.0000    0
 166 bus-166 90    1  1  0 1.0352 -40.78    13.30      3.20    0.00    0.00   90.00 1.0000    0.00    0.00  0.0000  0.0000    0
 167 bus-167 90    1  1  0 1.0300 -41.25    17.80     -0.80    0.00    0.00   90.00 1.0000    0.00    0.00  0.0000  0.0000    0
 168 bus-168 225   1  1  0 1.0600 -36.31     0.00      0.00    0.00    0.00  225.00 1.0000    0.00    0.00  0.0000  0.0000    0
 169 bus-169 90    1  1  0 1.0199 -34.65     9.90     -0.90    0.00    0.00   90.00 1.0000    0.00    0.00  0.0000  0.0000    0
 170 bus-170 90    1  1  0 1.0234 -35.07    79.80     13.50    0.00    0.00   90.00 1.0000    0.00    0.00  0.0000  0.0000    0
 171 bus-171 90    1  1  0 1.0408 -39.13    28.00      0.80    0.00    0.00   90.00 1.0000    0.00    0.00  0.0000  0.3000    0
 172 bus-172 225   1  1  0 1.0469 -34.52     0.00      0.00    0.00    0.00  225.00 1.0000    0.00    0.00  0.0000  0.0000    0
 173 bus-173 90    1  1  0 1.0590 -23.83    28.50      8.00    0.00    0.00   90.00 1.0000    0.00    0.00  0.0000  0.0000    0
 174 bus-174 90    1  1  0 1.0561 -26.55    59.70     11.60    0.00    0.00   90.00 1.0000    0.00    0.00  0.0000  0.0000    0
 175 bus-175 63    1  1  0 1.0390 -18.73     0.00      0.00    0.00    0.00   63.00 1.0000    0.00    0.00  0.0000  0.0000    0
 176 bus-176 150   1  1  2 1.0991 -16.95     0.00      0.00    0.00    0.78  150.00 1.1000   10.00   -4.00  0.0000  0.0000    0
 177 bus-177 225   1  1  0 1.0624 -31.00     0.00      0.00    0.00    0.00  225.00 1.0000    0.00    0.00  0.0000  0.0000    0
 178 bus-178 225   1  1  0 1.0624 -31.00     0.00      0.00    0.00    0.00  225.00 1.0000    0.00    0.00  0.0000  0.0000    0
 179 bus-179 63    1  1  0 1.0091 -34.77     0.00      0.00    0.00    0.00   63.00 1.0000    0.00    0.00  0.0000  0.0000    0
 180 bus-180 225   1  1  0 1.0624 -31.00     0.00      0.00    0.00    0.00  225.00 1.0000    0.00    0.00  0.0000  0.0000    0
 181 bus-181 63    1  1  0 1.0554 -25.47    12.70     -5.30    0.00    0.00   63.00 1.0000    0.00    0.00  0.0000  0.0000    0
 182 bus-182 63    1  1  0 1.0388 -11.07    16.00      3.10    0.00    0.00   63.00 1.0000    0.00    0.00  0.0000  0.0000    0
 183 bus-183 63    1  1  0 1.0247 -22.79     5.50     -1.70    0.00    0.00   63.00 1.0000    0.00    0.00  0.0000  0.0000    0
 184 bus-184 90    1  1  0 1.0625 -33.11     5.00      1.40    0.00    0.00   90.00 1.0000    0.00    0.00  0.0000  0.0000    0
 185 bus-185 63    1  1  0 1.0230 -15.83    30.60      2.70    0.00    0.00   63.00 1.0000    0.00    0.00  0.0000  0.0000    0
 186 bus-186 90    1  1  0 1.0234 -28.66     1.20      0.20    0.00    0.00   90.00 1.0000    0.00    0.00  0.0000  0.0000    0
 187 bus-187 63    1  1  2 1.0507 -20.50     0.00      0.00    0.00    3.83   63.00 1.0750   10.00  -10.00  0.0000  0.0000    0
 188 bus-188 63    1  1  0 1.0987 -19.07     0.00      0.00    0.00    0.00   63.00 1.0000    0.00    0.00  0.0000  0.0000    0
 189 bus-189 63    1  1  0 1.0372 -24.01    16.80      1.80    0.00    0.00   63.00 1.0000    0.00    0.00  0.0000  0.0000    0
 190 bus-190 45    1  1  2 0.9527  -8.26     0.00      0.00    0.00   -0.37   45.00 0.9510   14.00  -14.00  0.0000  0.0000    0
 191 bus-191 90    1  1  0 1.0202 -34.58    15.40     -1.10    0.00    0.00   90.00 1.0000    0.00    0.00  0.0000  0.0000    0
 192 bus-192 63    1  1  0 1.0577 -20.64     9.90     -0.00    9.17    0.00   63.00 1.0580    0.00    0.00  0.0000  0.0000    0
 193 bus-193 225   1  1  0 1.0421 -29.62     0.10      0.70    0.00    0.00  225.00 1.0000    0.00    0.00  0.0000  0.0000    0
 194 bus-194 63    1  1  2 1.0560 -24.81     0.70     -1.60    0.84    2.00   63.00 1.0560    2.00    1.80  0.0000  0.0000    0
 195 bus-195 63    1  1  0 1.0450 -32.46     0.00      0.00    0.00    0.00   63.00 1.0000    0.00    0.00  0.0000  0.0000    0
 196 bus-196 63    1  1  0 1.0450 -32.46     0.00      0.00    0.00    0.00   63.00 1.0000    0.00    0.00  0.0000  0.0000    0
 197 bus-197 63    1  1  0 1.0142 -32.25    27.50     -0.60    0.00    0.00   63.00 1.0000    0.00    0.00  0.0000  0.1500    0
 198 bus-198 63    1  1  0 1.0200 -23.04    11.10     -0.80    0.00    0.00   63.00 1.0000    0.00    0.00  0.0000  0.0000    0
 199 bus-199 90    1  1  0 1.0180 -48.36    12.60      2.70    0.00    0.00   90.00 1.0000    0.00    0.00  0.0000  0.0000    0
 200 bus-200 225   1  1  0 1.0835 -23.09     0.00      0.00    0.00    0.00  225.00 1.0000    0.00    0.00  0.0000  0.0000    0
...
-999
BRANCH DATA FOLLOWS                   9037 ITEMS
4647    1  1  1 1 1  0.005726  0.010482   0.00000     0     0     0    0 0  1.0000    0.00      0      0      0       0      0
5244    1  1  1 1 1  0.012840  0.025679   0.00000     0     0     0    0 0  1.0000    0.00      0      0      0       0      0
1682    2  1  1 1 1  0.005799  0.010615   0.00750     0     0     0    0 0  1.0000    0.00      0      0      0       0      0
1673    3  1  1 1 1  0.134039  0.309398   0.00350     0     0     0    0 0  1.0000    0.00      0      0      0       0      0
2303    3  1  1 1 1  0.049131  0.133283   0.00150     0     0     0    0 0  1.0000    0.00      0      0      0       0      0
 700    4  1  1 1 1  0.025926  0.109136   0.00020     0     0     0    0 0  1.0000    0.00      0      0      0       0      0
3939    4  1  1 1 1  0.050000  0.126914   0.00060     0     0     0    0 0  1.0000    0.00      0      0      0       0      0
5046    4  1  1 1 1  0.023210  0.097407   0.00160     0     0     0    0 0  1.0000    0.00      0      0      0       0      0
4413    5  1  1 1 1  0.040564  0.113631   0.00130     0     0     0    0 0  1.0000    0.00      0      0      0       0      0
2779    6  1  1 1 1  0.006047  0.020912   0.02220     0     0     0    0 0  1.0000    0.00      0      0      0       0      0
2780    7  1  1 1 1  0.012472  0.032099   0.00610     0     0     0    0 0  1.0000    0.00      0      0      0       0      0
2466    8  1  1 1 1  0.002607  0.017462   0.03240   540   540   540    0 0  1.0000    0.00      0      0      0       0      0
 470    9  1  1 1 1  0.053893  0.142580   0.00170     0     0     0    0 0  1.0000    0.00      0      0      0       0      0
  11   10  1  1 1 1  0.000247  0.001235   0.00050     0     0     0    0 0  1.0000    0.00      0      0      0       0      0
  11   10  1  1 1 1  0.000247  0.001235   0.00020     0     0     0    0 0  1.0000    0.00      0      0      0       0      0
  30   11  1  1 1 1  0.039753  0.100988   0.00470     0     0     0    0 0  1.0000    0.00      0      0      0       0      0
2929   11  1  1 1 1  0.037654  0.096173   0.00100     0     0     0    0 0  1.0000    0.00      0      0      0       0      0
2181   12  1  1 1 1  0.014613  0.060721   0.00080     0     0     0    0 0  1.0000    0.00      0      0      0       0      0
4017   12  1  1 1 1  0.034064  0.121139   0.00150     0     0     0    0 0  1.0000    0.00      0      0      0       0      0
4019   12  1  1 1 1  0.000242  0.000442   0.00040     0     0     0    0 0  1.0000    0.00      0      0      0       0      0
 115   13  1  1 1 1  0.000021  0.000125   0.13860   737   737   737    0 0  1.0000    0.00      0      0      0       0      0
2337   13  1  1 1 1  0.000145  0.001877   0.06350  2487  2487  2487    0 0  1.0000    0.00      0      0      0       0      0
4577   13  1  1 1 1  0.000319  0.003234   0.08380  1841  1841  1841    0 0  1.0000    0.00      0      0      0       0      0
 116   13  1  1 1 1  0.000021  0.000125   0.13860   737   737   737    0 0  1.0000    0.00      0      0      0       0      0
1225   14  1  1 1 1  0.040000  0.134198   0.02740     0     0     0    0 0  1.0000    0.00      0      0      0       0      0
2874   14  1  1 1 1  0.012222  0.052346   0.00260     0     0     0    0 0  1.0000    0.00      0      0      0       0      0
4595   14  1  1 1 1  0.007284  0.045432   0.00240     0     0     0    0 0  1.0000    0.00      0      0      0       0      0
4955   14  1  1 1 1  0.059963  0.154222   0.02360     0     0     0    0 0  1.0000    0.00      0      0      0       0      0
5230   14  1  1 1 1  0.018025  0.110988   0.00730     0     0     0    0 0  1.0000    0.00      0      0      0       0      0
2874   14  1  1 1 1  0.012222  0.052593   0.00320     0     0     0    0 0  1.0000    0.00      0      0      0       0      0
4595   14  1  1 1 1  0.007284  0.044938   0.00240     0     0     0    0 0  1.0000    0.00      0      0      0       0      0
2906   15  1  1 1 1  0.037541  0.100529   0.00110     0     0     0    0 0  1.0000    0.00      0      0      0       0      0
4124   15  1  1 1 1  0.090199  0.211388   0.00230     0     0     0    0 0  1.0000    0.00      0      0      0       0      0
4455   15  1  1 1 1  0.098010  0.267574   0.00000     0     0     0    0 0  1.0000    0.00      0      0      0       0      0
 249   16  1  1 1 1  0.071806  0.191484   0.00190     0     0     0    0 0  1.0000    0.00      0      0      0       0      0
 337   16  1  1 1 1  0.119174  0.284958   0.00440     0     0     0    0 0  1.0000    0.00      0      0      0       0      0
5834   17  1  1 1 1  0.022346  0.061111   0.00290     0     0     0    0 0  1.0000    0.00      0      0      0       0      0
3727   18  1  1 1 1  0.009383  0.019753   0.00000     0     0     0    0 0  1.0000    0.00      0      0      0       0      0
5094   19  1  1 1 1  0.000252  0.000504   0.00000     0     0     0    0 0  1.0000    0.00      0      0      0       0      0
3727   20  1  1 1 1  0.001975  0.004444   0.00000     0     0     0    0 0  1.0000    0.00      0      0      0       0      0
1354   21  1  1 1 1  0.036296  0.099012   0.00450     0     0     0    0 0  1.0000    0.00      0      0      0       0      0
1598   21  1  1 1 1  0.032716  0.089136   0.00570     0     0     0    0 0  1.0000    0.00      0      0      0       0      0
1843   22  1  1 1 1  0.138574  0.351474   0.00580     0     0     0    0 0  1.0000    0.00      0      0      0       0      0
5023   22  1  1 1 1  0.094407  0.210456   0.00440     0     0     0    0 0  1.0000    0.00      0      0      0       0      0
1157   23  1  1 1 1  0.047115  0.117158   0.00100     0     0     0    0 0  1.0000    0.00      0      0      0       0      0
2703   23  1  1 1 1  0.039557  0.120937   0.01320     0     0     0    0 0  1.0000    0.00      0      0      0       0      0
3425   23  1  1 1 1  0.022676  0.062484   0.00070     0     0     0    0 0  1.0000    0.00      0      0      0       0      0
 144   24  1  1 1 1  0.064568  0.167160   0.01130     0     0     0    0 0  1.0000    0.00      0      0      0       0      0
1282   24  1  1 1 1  0.048605  0.128481   0.00620     0     0     0    0 0  1.0000    0.00      0      0      0       0      0
 490   25  1  1 1 1  0.004815  0.029630   0.00160     0     0     0    0 0  1.0000    0.00      0      0      0       0      0
2093   25  1  1 1 1  0.007309  0.044630   0.00730     0     0     0    0 0  1.0000    0.00      0      0      0       0      0
 612   26  1  1 1 1  0.034321  0.145802   0.00730     0     0     0    0 0  1.0000    0.00      0      0      0       0      0
1866   26  1  1 1 1  0.004815  0.009753   0.00050     0     0     0    0 0  1.0000    0.00      0      0      0       0      0
2602   26  1  1 1 1  0.049012  0.133704   0.00630     0     0     0    0 0  1.0000    0.00      0      0      0       0      0
2922   26  1  1 1 1  0.046420  0.126543   0.00580     0     0     0    0 0  1.0000    0.00      0      0      0       0      0
3339   26  1  1 1 1  0.046296  0.125926   0.00600     0     0     0    0 0  1.0000    0.00      0      0      0       0      0
4632   26  1  1 1 1  0.053704  0.136753   0.00650     0     0     0    0 0  1.0000    0.00      0      0      0       0      0
2922   26  1  1 1 1  0.033580  0.120988   0.00620     0     0     0    0 0  1.0000    0.00      0      0      0       0      0
 536   27  1  1 1 1  0.006163  0.041067   0.07590   446   446   446    0 0  1.0000    0.00      0      0      0       0      0
2350   27  1  1 1 1  0.000652  0.004369   0.00810   558   558   558    0 0  1.0000    0.00      0      0      0       0      0
2684   28  1  1 1 1  0.050945  0.131922   0.00150     0     0     0    0 0  1.0000    0.00      0      0      0       0      0
3892   28  1  1 1 1  0.058781  0.149005   0.00170     0     0     0    0 0  1.0000    0.00      0      0      0       0      0
2887   29  1  1 1 1  0.067019  0.137566   0.00370     0     0     0    0 0  1.0000    0.00      0      0      0       0      0
3321   29  1  1 1 1  0.032754  0.088939   0.00390     0     0     0    0 0  1.0000    0.00      0      0      0       0      0
3321   29  1  1 1 1  0.030184  0.080096   0.00530     0     0     0    0 0  1.0000    0.00      0      0      0       0      0
 144   30  1  1 1 1  0.066049  0.187778   0.00990     0     0     0    0 0  1.0000    0.00      0      0      0       0      0
1553   30  1  1 1 1  0.065062  0.133704   0.00620     0     0     0    0 0  1.0000    0.00      0      0      0       0      0
4841   30  1  1 1 1  0.041728  0.106049   0.00500     0     0     0    0 0  1.0000    0.00      0      0      0       0      0
 150   31  1  1 1 1  0.009574  0.038750   0.01140     0     0     0    0 0  1.0000    0.00      0      0      0       0      0
3162   31  1  1 1 1  0.000171  0.000313   0.00020     0     0     0    0 0  1.0000    0.00      0      0      0       0      0
3692   31  1  1 1 1  0.034266  0.094230   0.00100     0     0     0    0 0  1.0000    0.00      0      0      0       0      0
4741   31  1  1 1 1  0.006803  0.028219   0.00000     0     0     0    0 0  1.0000    0.00      0      0      0       0      0
 150   31  1  1 1 1  0.008566  0.037541   0.01210     0     0     0    0 0  1.0000    0.00      0      0      0       0      0
3729   32  1  1 1 1  0.009733  0.034089   0.01850     0     0     0    0 0  1.0000    0.00      0      0      0       0      0
 366   34  1  1 1 1  0.000277  0.002015   0.00300   288   288   288    0 0  1.0000    0.00      0      0      0       0      0
1017   33  1  1 1 1  0.008810  0.033995   0.06070   289   289   289    0 0  1.0000    0.00      0      0      0       0      0
1158   33  1  1 1 1  0.004642  0.019832   0.03540   255   255   255    0 0  1.0000    0.00      0      0      0       0      0
2580   34  1  1 1 1  0.008861  0.035060   0.06230   288   288   288    0 0  1.0000    0.00      0      0      0       0      0
2704   34  1  1 1 1  0.006993  0.032869   0.05570   255   255   255    0 0  1.0000    0.00      0      0      0       0      0
4746   33  1  1 1 1  0.002173  0.008731   0.01520     0     0     0    0 0  1.0000    0.00      0      0      0       0      0
4858   34  1  1 1 1  0.000770  0.003121   0.00510     0     0     0    0 0  1.0000    0.00      0      0      0       0      0
5671   33  1  1 1 1  0.004109  0.016138   0.02840   288   288   288    0 0  1.0000    0.00      0      0      0       0      0
 368   35  1  1 1 1  0.000083  0.000907   0.02020  1034  1034  1034    0 0  1.0000    0.00      0      0      0       0      0
1109   35  1  1 1 1  0.000552  0.006726   0.09390  1786  1786  1786    0 0  1.0000    0.00      0      0      0       0      0
2150   35  1  1 1 1  0.000512  0.008012   0.24550  2462  2462  2462    0 0  1.0000    0.00      0      0      0       0      0
3135   35  1  1 1 1  0.001107  0.009180   0.19060  1644  1644  1644    0 0  1.0000    0.00      0      0      0       0      0
 367   36  1  1 1 1  0.000062  0.000741   0.01730  1095  1095  1095    0 0  1.0000    0.00      0      0      0       0      0
2150   35  1  1 1 1  0.000512  0.008019   0.24550  2462  2462  2462    0 0  1.0000    0.00      0      0      0       0      0
2150   36  1  1 1 1  0.001153  0.013123   0.18410  1433  1433  1433    0 0  1.0000    0.00      0      0      0       0      0
5229   37  1  1 1 1  0.055933  0.120685   0.00130     0     0     0    0 0  1.0000    0.00      0      0      0       0      0
5515   37  1  1 1 1  0.039053  0.084404   0.00100     0     0     0    0 0  1.0000    0.00      0      0      0       0      0
 730   38  1  1 1 1  0.002520  0.006551   0.00010     0     0     0    0 0  1.0000    0.00      0      0      0       0      0
1229   39  1  1 1 1  0.009877  0.042222   0.00210     0     0     0    0 0  1.0000    0.00      0      0      0       0      0
5809   39  1  1 1 1  0.024815  0.063086   0.00290     0     0     0    0 0  1.0000    0.00      0      0      0       0      0
1229   39  1  1 1 1  0.009877  0.042222   0.00210     0     0     0    0 0  1.0000    0.00      0      0      0       0      0
2251   40  1  1 1 1  0.056173  0.142593   0.00660     0     0     0    0 0  1.0000    0.00      0      0      0       0      0
4595   40  1  1 1 1  0.034444  0.109012   0.00760     0     0     0    0 0  1.0000    0.00      0      0      0       0      0
 430   41  1  1 1 1  0.000158  0.000672   0.07190   331   331   331    0 0  1.0000    0.00      0      0      0       0      0
3953   41  1  1 1 1  0.000045  0.000089   0.00200   268   268   268    0 0  1.0000    0.00      0      0      0       0      0
1484   42  1  1 1 1  0.010960  0.020063   0.00900     0     0     0    0 0  1.0000    0.00      0      0      0       0      0
2765   42  1  1 1 1  0.002268  0.008818   0.00990     0     0     0    0 0  1.0000    0.00      0      0      0       0      0
2724   43  1  1 1 1  0.001481  0.006296   0.00390     0     0     0    0 0  1.0000    0.00      0      0      0       0      0
3488   44  1  1 1 1  0.050617  0.137012   0.00900     0     0     0    0 0  1.0000    0.00      0      0      0       0      0
4322   44  1  1 1 1  0.074326  0.194507   0.00210     0     0     0    0 0  1.0000    0.00      0      0      0       0      0
5097   45  1  1 1 1  0.000247  0.000741   0.00000     0     0     0    0 0  1.0000    0.00      0      0      0       0      0
1085   46  1  1 1 1  0.049131  0.134039   0.00100     0     0     0    0 0  1.0000    0.00      0      0      0       0      0
2194   46  1  1 1 1  0.033258  0.090955   0.00100     0     0     0    0 0  1.0000    0.00      0      0      0       0      0
3305   46  1  1 1 1  0.067437  0.123442   0.00100     0     0     0    0 0  1.0000    0.00      0      0      0       0      0
1085   47  1  1 1 1  0.037289  0.118166   0.00100     0     0     0    0 0  1.0000    0.00      0      0      0       0      0
5363   48  1  1 1 1  0.021358  0.057037   0.00050     0     0     0    0 0  1.0000    0.00      0      0      0       0      0
1223   49  1  1 1 1  0.071303  0.180902   0.00210     0     0     0    0 0  1.0000    0.00      0      0      0       0      0
2345   49  1  1 1 1  0.071554  0.181910   0.00210     0     0     0    0 0  1.0000    0.00      0      0      0       0      0
 470   50  1  1 1 1  0.028193  0.104535   0.00130     0     0     0    0 0  1.0000    0.00      0      0      0       0      0
1676   50  1  1 1 1  0.055404  0.171429   0.01000     0     0     0    0 0  1.0000    0.00      0      0      0       0      0
3553   50  1  1 1 1  0.010834  0.071554   0.00100     0     0     0    0 0  1.0000    0.00      0      0      0       0      0
4629   50  1  1 1 1  0.013857  0.030234   0.00030     0     0     0    0 0  1.0000    0.00      0      0      0       0      0
3553   50  1  1 1 1  0.011414  0.070648   0.00090     0     0     0    0 0  1.0000    0.00      0      0      0       0      0
4629   50  1  1 1 1  0.013757  0.030108   0.00030     0     0     0    0 0  1.0000    0.00      0      0      0       0      0
1196   51  1  1 1 1  0.004780  0.028622   0.05470   455   455   455    0 0  1.0000    0.00      0      0      0       0      0
1197   51  1  1 1 1  0.004780  0.028583   0.05470   455   455   455    0 0  1.0000    0.00      0      0      0       0      0
 166   52  1  1 1 1  0.012840  0.032716   0.00150     0     0     0    0 0  1.0000    0.00      0      0      0       0      0
5489   52  1  1 1 1  0.014198  0.036049   0.00160     0     0     0    0 0  1.0000    0.00      0      0      0       0      0
3349   53  1  1 1 1  0.005291  0.021668   0.00030     0     0     0    0 0  1.0000    0.00      0      0      0       0      0
2769   54  1  1 1 1  0.013580  0.047654   0.00230     0     0     0    0 0  1.0000    0.00      0      0      0       0      0
 373   55  1  1 1 1  0.000257  0.000514   0.02940     0     0     0    0 0  1.0000    0.00      0      0      0       0      0
2693   56  1  1 1 1  0.000257  0.002153   0.21470   452   452   452    0 0  1.0000    0.00      0      0      0       0      0
3427   56  1  1 1 1  0.000277  0.000869   0.09310   481   481   481    0 0  1.0000    0.00      0      0      0       0      0
5098   57  1  1 1 1  0.000756  0.002520   0.00000     0     0     0    0 0  1.0000    0.00      0      0      0       0      0
3390   58  1  1 1 1  0.000237  0.000830   0.18630   268   268   268    0 0  1.0000    0.00      0      0      0       0      0
3565   58  1  1 1 1  0.000178  0.000612   0.13770   268   268   268    0 0  1.0000    0.00      0      0      0       0      0
 142   59  1  1 1 1  0.030486  0.076342   0.00200     0     0     0    0 0  1.0000    0.00      0      0      0       0      0
1652   59  1  1 1 1  0.011086  0.024691   0.00150     0     0     0    0 0  1.0000    0.00      0      0      0       0      0
2476   60  1  1 1 1  0.044344  0.170572   0.00210     0     0     0    0 0  1.0000    0.00      0      0      0       0      0
3525   60  1  1 1 1  0.036709  0.151776   0.00170     0     0     0    0 0  1.0000    0.00      0      0      0       0      0
2228   61  1  1 1 1  0.017788  0.048551   0.00060     0     0     0    0 0  1.0000    0.00      0      0      0       0      0
2634   61  1  1 1 1  0.057521  0.145251   0.00170     0     0     0    0 0  1.0000    0.00      0      0      0       0      0
2048   62  1  1 1 1  0.014109  0.057949   0.00290     0     0     0    0 0  1.0000    0.00      0      0      0       0      0
2950   62  1  1 1 1  0.007055  0.029730   0.00140     0     0     0    0 0  1.0000    0.00      0      0      0       0      0
 371   63  1  1 1 1  0.024263  0.065911   0.00070     0     0     0    0 0  1.0000    0.00      0      0      0       0      0
3081   63  1  1 1 1  0.020912  0.059209   0.00160     0     0     0    0 0  1.0000    0.00      0      0      0       0      0
 145   64  1  1 1 1  0.002568  0.011753   0.02030   424   424   424    0 0  1.0000    0.00      0      0      0       0      0
5108   64  1  1 1 1  0.002568  0.011615   0.02280   290   290   290    0 0  1.0000    0.00      0      0      0       0      0
4607   65  1  1 1 1  0.006299  0.033585   0.05990     0     0     0    0 0  1.0000    0.00      0      0      0       0      0
4607   65  1  1 1 1  0.006299  0.033661   0.06000     0     0     0    0 0  1.0000    0.00      0      0      0       0      0
1546   66  1  1 1 1  0.102293  0.226757   0.00250     0     0     0    0 0  1.0000    0.00      0      0      0       0      0
2292   66  1  1 1 1  0.177551  0.405291   0.00460     0     0     0    0 0  1.0000    0.00      0      0      0       0      0
3249   66  1  1 1 1  0.088264  0.161566   0.00170     0     0     0    0 0  1.0000    0.00      0      0      0       0      0
3030   67  1  1 1 1  0.007307  0.014613   0.00020     0     0     0    0 0  1.0000    0.00      0      0      0       0      0
2883   68  1  1 1 1  0.067775  0.139834   0.00100     0     0     0    0 0  1.0000    0.00      0      0      0       0      0
4537   68  1  1 1 1  0.047367  0.161250   0.00210     0     0     0    0 0  1.0000    0.00      0      0      0       0      0
5151   68  1  1 1 1  0.004031  0.016629   0.00100     0     0     0    0 0  1.0000    0.00      0      0      0       0      0
4610   69  1  1 1 1  0.073066  0.205089   0.00220     0     0     0    0 0  1.0000    0.00      0      0      0       0      0
5099   70  1  1 1 1  0.000048  0.000088   0.00010     0     0     0    0 0  1.0000    0.00      0      0      0       0      0
2165   71  1  1 1 1  0.000252  0.002520   0.00080     0     0     0    0 0  1.0000    0.00      0      0      0       0      0
3145   71  1  1 1 1  0.030738  0.088687   0.01690     0     0     0    0 0  1.0000    0.00      0      0      0       0      0
5100   71  1  1 1 1  0.006551  0.016377   0.01710     0     0     0    0 0  1.0000    0.00      0      0      0       0      0
3145   71  1  1 1 1  0.025195  0.074830   0.02040     0     0     0    0 0  1.0000    0.00      0      0      0       0      0
3746   72  1  1 1 1  0.000099  0.000770   0.07800   379   379   379    0 0  1.0000    0.00      0      0      0       0      0
3746   73  1  1 1 1  0.000099  0.000770   0.07700   379   379   379    0 0  1.0000    0.00      0      0      0       0      0
5108   74  1  1 1 1  0.000514  0.003437   0.00610   290   290   290    0 0  1.0000    0.00      0      0      0       0      0
5128   74  1  1 1 1  0.005476  0.036879   0.12550   522   522   522    0 0  1.0000    0.00      0      0      0       0      0
 145   74  1  1 1 1  0.000514  0.003457   0.00610   418   418   418    0 0  1.0000    0.00      0      0      0       0      0
4964   75  1  1 1 1  0.017531  0.046914   0.00230     0     0     0    0 0  1.0000    0.00      0      0      0       0      0
2084   75  1  1 1 1  0.005309  0.014321   0.00060     0     0     0    0 0  1.0000    0.00      0      0      0       0      0
3082   76  1  1 1 1  0.003477  0.011180   0.01870   304   304   304    0 0  1.0000    0.00      0      0      0       0      0
3832   76  1  1 1 1  0.000612  0.003121   0.01520   270   270   270    0 0  1.0000    0.00      0      0      0       0      0
2344   77  1  1 1 1  0.013857  0.035525   0.00040     0     0     0    0 0  1.0000    0.00      0      0      0       0      0
 240   78  1  1 1 1  0.002771  0.008314   0.00830     0     0     0    0 0  1.0000    0.00      0      0      0       0      0
4562   78  1  1 1 1  0.000151  0.000302   0.00000     0     0     0    0 0  1.0000    0.00      0      0      0       0      0
 630   79  1  1 1 1  0.010758  0.021870   0.00710     0     0     0    0 0  1.0000    0.00      0      0      0       0      0
1871   79  1  1 1 1  0.003779  0.014613   0.01980     0     0     0    0 0  1.0000    0.00      0      0      0       0      0
2410   79  1  1 1 1  0.008314  0.017057   0.02400     0     0     0    0 0  1.0000    0.00      0      0      0       0      0
4077   79  1  1 1 1  0.000252  0.001764   0.00430     0     0     0    0 0  1.0000    0.00      0      0      0       0      0
 630   79  1  1 1 1  0.010758  0.021870   0.00710     0     0     0    0 0  1.0000    0.00      0      0      0       0      0
4076   79  1  1 1 1  0.000302  0.001562   0.00370     0     0     0    0 0  1.0000    0.00      0      0      0       0      0
4078   81  1  1 1 1  0.000024  0.000144   0.02130   701   701   701    0 0  1.0000    0.00      0      0      0       0      0
4078   80  1  1 1 1  0.000071  0.000162   0.01620   251   251   251    0 0  1.0000    0.00      0      0      0       0      0
 680   82  1  1 1 1  0.068027  0.173091   0.00200     0     0     0    0 0  1.0000    0.00      0      0      0       0      0
 803   82  1  1 1 1  0.027211  0.068783   0.00100     0     0     0    0 0  1.0000    0.00      0      0      0       0      0
2073   82  1  1 1 1  0.030990  0.202822   0.00200     0     0     0    0 0  1.0000    0.00      0      0      0       0      0
3485   83  1  1 1 1  0.000257  0.001165   0.00200   405   405   405    0 0  1.0000    0.00      0      0      0       0      0
2129   84  1  1 1 1  0.045603  0.117410   0.00100     0     0     0    0 0  1.0000    0.00      0      0      0       0      0
3802   84  1  1 1 1  0.008566  0.024691   0.00000     0     0     0    0 0  1.0000    0.00      0      0      0       0      0
5103   85  1  1 1 1  0.047317  0.131595   0.00150     0     0     0    0 0  1.0000    0.00      0      0      0       0      0
2809   86  1  1 1 1  0.040494  0.128889   0.00640     0     0     0    0 0  1.0000    0.00      0      0      0       0      0
3511   86  1  1 1 1  0.037778  0.097037   0.00450     0     0     0    0 0  1.0000    0.00      0      0      0       0      0
3771   87  1  1 1 1  0.032071  0.058705   0.00060     0     0     0    0 0  1.0000    0.00      0      0      0       0      0
4346   87  1  1 1 1  0.062887  0.204157   0.00200     0     0     0    0 0  1.0000    0.00      0      0      0       0      0
3771   87  1  1 1 1  0.032026  0.058624   0.00060     0     0     0    0 0  1.0000    0.00      0      0      0       0      0
1617   88  1  1 1 1  0.075838  0.224742   0.00270     0     0     0    0 0  1.0000    0.00      0      0      0       0      0
1706   88  1  1 1 1  0.028471  0.089695   0.00100     0     0     0    0 0  1.0000    0.00      0      0      0       0      0
3642   88  1  1 1 1  0.080373  0.255732   0.00300     0     0     0    0 0  1.0000    0.00      0      0      0       0      0
5559   88  1  1 1 1  0.000252  0.000504   0.00000     0     0     0    0 0  1.0000    0.00      0      0      0       0      0
2496   89  1  1 1 1  0.033531  0.087235   0.01660     0     0     0    0 0  1.0000    0.00      0      0      0       0      0
4226   89  1  1 1 1  0.030370  0.083210   0.00390     0     0     0    0 0  1.0000    0.00      0      0      0       0      0
5104   90  1  1 1 1  0.000444  0.001136   0.00000     0     0     0    0 0  1.0000    0.00      0      0      0       0      0
3727   91  1  1 1 1  0.057284  0.130864   0.00000     0     0     0    0 0  1.0000    0.00      0      0      0       0      0
 653   92  1  1 1 1  0.054749  0.157445   0.00270     0     0     0    0 0  1.0000    0.00      0      0      0       0      0
4056   92  1  1 1 1  0.038549  0.103049   0.00120     0     0     0    0 0  1.0000    0.00      0      0      0       0      0
5729   92  1  1 1 1  0.012598  0.052406   0.00060     0     0     0    0 0  1.0000    0.00      0      0      0       0      0
...
-999
LOSS ZONES FOLLOWS   0 ITEMS
-99
INTERCHANGE DATA FOLLOWS      0 ITEMS
-9
TIE LINES FOLLOWS             0 ITEMS
-999
END OF DATA